------------------------------------------
RUNSPEC
------------------------------------------
TITLE
'ECLIPSE RUN'

START
1 JAN 2050 /

CPR
/

MESSAGES
1* 1* 1* 100000 1* 1* 1* 1* 1* 100000 /

DEBUG
15* -1/

--NPROCS MACHINE TYPE
4 DISTRIBUTED /

DIMENS
10 15 14 /

WATER
OIL
METRIC

NSTACK
25 /

WELLDIMS
28 28 28 28 /

MONITOR
MULTOUT

SATOPTS
DIRECT /

FMTOUT

SMRYDIMS
10000000 /

TABDIMS
6300 1 100 100 /

EQLDIMS
1 100 2100 30 /

ROCKCOMP
REVERS 1 NO /

------------------------------------------
GRID 
------------------------------------------

DX
2100*20
/

DY
2100*20
/

DZ
2100*2
/

TOPS
150*1500
/

INCLUDE
por_include.txt /

INCLUDE
perm_horz_include.txt /

INCLUDE
perm_horz_2_include.txt /

INCLUDE
perm_vert_include.txt /


INIT
EDIT
------------------------------------------
PROPS
------------------------------------------

INCLUDE
kr_all_include.txt /

PVTW
200 1.00 0.00 0.568898330018891 0.00 /

PVDO
0.0000 1.00000000001   0.052357530918036
400.00 1.00000000000   0.052357530918036
800.00 0.99999999999   0.052357530918036
1200.0 0.99999999998   0.052357530918036
1600.0 0.99999999997   0.052357530918036
2000.0 0.99999999996   0.052357530918036
2400.0 0.99999999995   0.052357530918036
2800.0 0.99999999994   0.052357530918036
3200.0 0.99999999993   0.052357530918036
3600.0 0.99999999992   0.052357530918036 /  

DENSITY
650.984723007302250  1030.443322371512068  6.509847230073023/

ROCKTAB
110   1.0   1
160   1.0   1
210   1.0   1
260   1.0   1
310   1.0   1
360   1.0   1
410   1.0   1
/

------------------------------------------
REGIONS
------------------------------------------

PVTNUM
2100*1
/

ROCKNUM
2100*1
/

INCLUDE
krnum_x_include.txt /

INCLUDE
krnum_y_include.txt /

INCLUDE
krnum_z_include.txt /

------------------------------------------
SOLUTION
------------------------------------------

-- datum depth, P at depth, contact depth, Pc at contact
EQUIL
0 1 0 0 /
/

RPTSOL
 'RESTART=1' 'FIP=1' 'PRES' 'SOIL' 'SWAT' 
/

------------------------------------------
SUMMARY
------------------------------------------
FOIR
FLPR
FOPR
FWPR
FWCT
FOPT
FWPT
FWIR
FWIT
WOPR
 'W2' /
WOPT
 'W2' /
WWPR
 'W2' /
WWPT
 'W2' /
WLPR
 'W2' /
WLPT
 'W2' /
WWCT
 'W2' /
WBHP
 'W2' /
WBHP
 'W1' /
WWIR
 'W1' /
WWIT
 'W1' /
/

RPTONLY

RUNSUM
SEPARATE

INCLUDE
'bpr_all_include.txt' /

------------------------------------------
SCHEDULE
------------------------------------------
RPTSCHED PRESSURE SOIL WELLS /
/

RPTSCHED 'WELLS'=2 'SUMMARY=2' /
/

RPTPRINT /
/
  
WELSPECS
W1 G 5 7 1* LIQ /
/
COMPDAT
W1 5 7 2 12 OPEN 1* 1* 0.00002 1* 0 0 Z 1* /
/
WCONINJE
W1 OIL OPEN RATE 5.041856925419e+02 1* 500 / 
/
 
WELSPECS
W2 G 10 2 1* LIQ /
/
COMPDAT
W2 10 2 2 12 OPEN 1* 1* 0.00002 1* 0 0 Z 1* /
/
WCONPROD
W2 OPEN BHP 1* 1* 1* 1* 1* 147/
/
 
TIME
0.683264103254849
1.366528206509698
2.049792309764547
2.733056413019395
3.416320516274244
4.099584619529093
4.782848722783942
5.466112826038790
6.149376929293640
6.832641032548489
7.515905135803337
8.199169239058186
8.882433342313035
9.565697445567885
10.248961548822731
10.932225652077580
11.615489755332430
12.298753858587279
12.982017961842129
13.665282065096976
14.348546168351826
15.031810271606675
15.715074374861523
16.398338478116372
17.081602581371222
17.764866684626071
18.448130787880920
19.131394891135766
19.814658994390616
20.497923097645465
21.181187200900311
21.864451304155160
22.547715407410010
23.230979510664859
23.914243613919709
24.597507717174558
25.280771820429408
25.964035923684254
26.647300026939103
27.330564130193952
28.013828233448802
28.697092336703651
29.380356439958501
30.063620543213350
30.746884646468196
31.430148749723045
32.113412852977895
32.796676956232744
33.479941059487594
34.163205162742443
34.846469265997293
35.529733369252142
36.212997472506991
36.896261575761834
37.579525679016683
38.262789782271533
38.946053885526382
39.629317988781231
40.312582092036081
40.995846195290930
41.679110298545773
42.362374401800622
43.045638505055472
43.728902608310321
44.412166711565170
45.095430814820020
45.778694918074869
46.461959021329719
47.145223124584568
47.828487227839418
48.511751331094267
49.195015434349116
49.878279537603966
50.561543640858808
51.244807744113658
51.928071847368507
52.611335950623356
53.294600053878206
53.977864157133055
54.661128260387905
55.344392363642754
56.027656466897604
56.710920570152453
57.394184673407302
58.077448776662152
58.760712879917001
59.443976983171851
60.127241086426700
60.810505189681543
61.493769292936392
62.177033396191241
62.860297499446091
63.543561602700940
64.226825705955790
64.910089809210632
65.593353912465489
66.276618015720331
66.959882118975187
67.643146222230030
68.326410325484886
69.009674428739729
69.692938531994585
70.376202635249427
71.059466738504284
71.742730841759126
72.425994945013969
73.109259048268825
73.792523151523667
74.475787254778524
75.159051358033366
75.842315461288223
76.525579564543065
77.208843667797922
77.892107771052764
78.575371874307621
79.258635977562463
79.941900080817319
80.625164184072162
81.308428287327018
81.991692390581861
82.674956493836703
83.358220597091545
84.041484700346402
84.724748803601244
85.408012906856101
86.091277010110943
86.774541113365800
87.457805216620642
88.141069319875498
88.824333423130341
89.507597526385197
90.190861629640040
90.874125732894896
91.557389836149738
92.240653939404595
92.923918042659437
93.607182145914294
94.290446249169136
94.973710352423993
95.656974455678835
96.340238558933692
97.023502662188534
97.706766765443390
98.390030868698233
99.073294971953089
99.756559075207917
100.439823178462774
101.123087281717616
101.806351384972473
102.489615488227315
103.172879591482172
103.856143694737014
104.539407797991871
105.222671901246713
105.905936004501569
106.589200107756412
107.272464211011268
107.955728314266111
108.638992417520967
109.322256520775809
110.005520624030666
110.688784727285508
111.372048830540365
112.055312933795207
112.738577037050064
113.421841140304906
114.105105243559763
114.788369346814605
115.471633450069461
116.154897553324304
116.838161656579146
117.521425759834003
118.204689863088845
118.887953966343701
119.571218069598544
120.254482172853400
120.937746276108228
121.621010379363085
122.304274482617927
122.987538585872784
123.670802689127626
124.354066792382483
125.037330895637325
125.720594998892182
126.403859102147024
127.087123205401880
127.770387308656723
128.453651411911579
129.136915515166436
129.820179618421264
130.503443721676121
131.186707824930977
131.869971928185834
132.553236031440662
133.236500134695518
133.919764237950375
134.603028341205231
135.286292444460059
135.969556547714916
136.652820650969772
137.336084754224629
138.019348857479457
138.702612960734314
139.385877063989170
140.069141167244027
140.752405270498855
141.435669373753711
142.118933477008568
142.802197580263424
143.485461683518253
144.168725786773081
144.851989890027937
145.535253993282794
146.218518096537650
146.901782199792478
147.585046303047335
148.268310406302191
148.951574509557048
149.634838612811876
150.318102716066733
151.001366819321589
151.684630922576446
152.367895025831274
153.051159129086130
153.734423232340987
154.417687335595843
155.100951438850672
155.784215542105528
156.467479645360385
157.150743748615241
157.834007851870069
158.517271955124926
159.200536058379782
159.883800161634639
160.567064264889467
161.250328368144324
161.933592471399180
162.616856574654037
163.300120677908865
163.983384781163721
164.666648884418549
165.349912987673406
166.033177090928262
166.716441194183091
167.399705297437947
168.082969400692804
168.766233503947660
169.449497607202488
170.132761710457345
170.816025813712201
171.499289916967058
172.182554020221886
172.865818123476743
173.549082226731599
174.232346329986456
174.915610433241284
175.598874536496140
176.282138639750997
176.965402743005853
177.648666846260681
178.331930949515538
179.015195052770395
179.698459156025251
180.381723259280079
181.064987362534936
181.748251465789792
182.431515569044649
183.114779672299477
183.798043775554333
184.481307878809190
185.164571982064047
185.847836085318875
186.531100188573731
187.214364291828588
187.897628395083444
188.580892498338272
189.264156601593129
189.947420704847985
190.630684808102842
191.313948911357670
191.997213014612527
192.680477117867383
193.363741221122240
194.047005324377068
194.730269427631924
195.413533530886781
196.096797634141637
196.780061737396466
197.463325840651322
198.146589943906179
198.829854047161035
199.513118150415835
200.196382253670691
200.879646356925548
201.562910460180376
202.246174563435233
202.929438666690089
203.612702769944946
204.295966873199774
204.979230976454630
205.662495079709487
206.345759182964343
207.029023286219171
207.712287389474028
208.395551492728885
209.078815595983741
209.762079699238569
210.445343802493426
211.128607905748282
211.811872009003139
212.495136112257967
213.178400215512823
213.861664318767680
214.544928422022537
215.228192525277365
215.911456628532221
216.594720731787078
217.277984835041934
217.961248938296762
218.644513041551619
219.327777144806475
220.011041248061332
220.694305351316160
221.377569454571017
222.060833557825816
222.744097661080673
223.427361764335529
224.110625867590386
224.793889970845214
225.477154074100071
226.160418177354927
226.843682280609784
227.526946383864612
228.210210487119468
228.893474590374325
229.576738693629181
230.260002796884010
230.943266900138866
231.626531003393723
232.309795106648579
232.993059209903407
233.676323313158264
234.359587416413120
235.042851519667977
235.726115622922805
236.409379726177661
237.092643829432518
237.775907932687375
238.459172035942203
239.142436139197059
239.825700242451916
240.508964345706772
241.192228448961600
241.875492552216457
242.558756655471313
243.242020758726170
243.925284861980998
244.608548965235855
245.291813068490711
245.975077171745568
246.658341275000396
247.341605378255252
248.024869481510109
248.708133584764965
249.391397688019794
250.074661791274650
250.757925894529507
251.441189997784363
252.124454101039191
252.807718204294048
253.490982307548904
254.174246410803761
254.857510514058589
255.540774617313446
256.224038720568274
256.907302823823159
257.590566927077987
258.273831030332872
258.957095133587700
259.640359236842528
260.323623340097413
261.006887443352241
261.690151546607069
262.373415649861954
263.056679753116782
263.739943856371667
264.423207959626495
265.106472062881323
265.789736166136208
266.473000269391036
267.156264372645865
267.839528475900750
268.522792579155578
269.206056682410463
269.889320785665291
270.572584888920119
271.255848992175004
271.939113095429832
272.622377198684660
273.305641301939545
273.988905405194373
274.672169508449258
275.355433611704086
276.038697714958914
276.721961818213799
277.405225921468627
278.088490024723455
278.771754127978340
279.455018231233169
280.138282334488053
280.821546437742882
281.504810540997710
282.188074644252538
282.871338747507366
283.554602850762251
284.237866954017079
284.921131057271964
285.604395160526792
286.287659263781620
286.970923367036505
287.654187470291333
288.337451573546161
289.020715676801046
289.703979780055874
290.387243883310703
291.070507986565588
291.753772089820416
292.437036193075301
293.120300296330129
293.803564399584957
294.486828502839842
295.170092606094670
295.853356709349498
296.536620812604383
297.219884915859211
297.903149019114096
298.586413122368924
299.269677225623752
299.952941328878637
300.636205432133465
301.319469535388293
302.002733638643178
302.685997741898007
303.369261845152892
304.052525948407720
304.735790051662548
305.419054154917433
306.102318258172261
306.785582361427089
307.468846464681974
308.152110567936802
308.835374671191687
309.518638774446515
310.201902877701343
310.885166980956228
311.568431084211056
312.251695187465884
312.934959290720769
313.618223393975597
314.301487497230482
314.984751600485311
315.668015703740139
316.351279806995024
317.034543910249795
317.717808013504680
318.401072116759508
319.084336220014393
319.767600323269221
320.450864426524049
321.134128529778934
321.817392633033762
322.500656736288590
323.183920839543475
323.867184942798303
324.550449046053188
325.233713149308016
325.916977252562845
326.600241355817730
327.283505459072558
327.966769562327386
328.650033665582271
329.333297768837099
330.016561872091984
330.699825975346812
331.383090078601640
332.066354181856525
332.749618285111353
333.432882388366181
334.116146491621066
334.799410594875894
335.482674698130779
336.165938801385607
336.849202904640435
337.532467007895320
338.215731111150149
338.898995214404977
339.582259317659862
340.265523420914690
340.948787524169575
341.632051627424403
 / 
 
END
